Global frequency set at 1000000000000 ticks per second
enter DPU
enter uPIM
DMA to atomic completed...
DMA to IRAM completed...
DMA to WRAM completed...
DMA to MRAM completed...
init completed...
sched 0 completed...
launch completed...
gem5 Simulator System.  https://www.gem5.org
gem5 is copyrighted software; use the --copyright option for details.

gem5 version 24.0.0.1
gem5 compiled Dec  3 2024 01:59:27
gem5 started Dec  3 2024 02:05:54
gem5 executing on server, pid 89459
command line: ./build/X86/gem5.opt configs/learning_gem5/part1/simplest.py

Beginning simulation!
MYLOG: fini_thread shutup a dpu
MYLOG: fini_thread shutup a dpu
MYLOG: fini_thread shutup a dpu
MYLOG: fini_thread shutup a dpu
MYLOG: fini_thread shutup a dpu
MYLOG: fini_thread shutup a dpu
MYLOG: fini_thread shutup a dpu
MYLOG: fini_thread shutup a dpu
MYLOG: fini_thread shutup a dpu
MYLOG: fini_thread shutup a dpu
MYLOG: fini_thread shutup a dpu
MYLOG: fini_thread shutup a dpu
MYLOG: fini_thread shutup a dpu
MYLOG: fini_thread shutup a dpu
MYLOG: fini_thread shutup a dpu
MYLOG: fini_thread shutup a dpu
check 0 completed...
uPIM: system is finished
benchmark: RED
bindir: /home/weichu/my_gem5/gem5/src/pim/bin/1_dpus
logdir: .
logic_frequency: 350
memory_frequency: 2400
memory_scheduling_policy: frfcfs
num_dpus: 1
num_pipeline_stages: 14
num_revolver_scheduling_cycles: 11
num_tasklets: 16
rank_read_bandwidth: 1
rank_write_bandwidth: 3
t_bl: 8
t_cl: 32
t_ras: 78
t_rcd: 32
t_rp: 32
verbose: 0
wordline_size: 1024
////CycleRule/0_cycle_rule: 68156
////CycleRule/10_cycle_rule: 68117
////CycleRule/11_cycle_rule: 68117
////CycleRule/12_cycle_rule: 68117
////CycleRule/13_cycle_rule: 68117
////CycleRule/14_cycle_rule: 68117
////CycleRule/15_cycle_rule: 68117
////CycleRule/1_cycle_rule: 68115
////CycleRule/2_cycle_rule: 68117
////CycleRule/3_cycle_rule: 68117
////CycleRule/4_cycle_rule: 68117
////CycleRule/5_cycle_rule: 68117
////CycleRule/6_cycle_rule: 68117
////CycleRule/7_cycle_rule: 68117
////CycleRule/8_cycle_rule: 68117
////CycleRule/9_cycle_rule: 68117
////CycleRule/cycle_rule: 1089909
////RevolverScheduler/0_revolver_wait: 1873091
////RevolverScheduler/10_revolver_wait: 1869703
////RevolverScheduler/11_revolver_wait: 1869890
////RevolverScheduler/12_revolver_wait: 1870077
////RevolverScheduler/13_revolver_wait: 1870264
////RevolverScheduler/14_revolver_wait: 1870451
////RevolverScheduler/15_revolver_wait: 1870638
////RevolverScheduler/1_revolver_wait: 1868009
////RevolverScheduler/2_revolver_wait: 1868207
////RevolverScheduler/3_revolver_wait: 1868394
////RevolverScheduler/4_revolver_wait: 1868581
////RevolverScheduler/5_revolver_wait: 1868757
////RevolverScheduler/6_revolver_wait: 1868944
////RevolverScheduler/7_revolver_wait: 1869131
////RevolverScheduler/8_revolver_wait: 1869329
////RevolverScheduler/9_revolver_wait: 1869516
////RevolverScheduler/active_tasklets_0: 13983632
////RevolverScheduler/active_tasklets_1: 1100
////RevolverScheduler/active_tasklets_10: 1861
////RevolverScheduler/active_tasklets_11: 1998
////RevolverScheduler/active_tasklets_12: 2174
////RevolverScheduler/active_tasklets_13: 2144
////RevolverScheduler/active_tasklets_14: 14056
////RevolverScheduler/active_tasklets_15: 2629061
////RevolverScheduler/active_tasklets_16: 1508351
////RevolverScheduler/active_tasklets_2: 610
////RevolverScheduler/active_tasklets_3: 1293
////RevolverScheduler/active_tasklets_4: 1875
////RevolverScheduler/active_tasklets_5: 1393
////RevolverScheduler/active_tasklets_6: 1402
////RevolverScheduler/active_tasklets_7: 1497
////RevolverScheduler/active_tasklets_8: 1690
////RevolverScheduler/active_tasklets_9: 1724
////RevolverScheduler/breakdown_dma: 1701
////RevolverScheduler/breakdown_etc: 13987060
////RevolverScheduler/breakdown_run: 2723504
////RevolverScheduler/current_active_tasklets: 0
////RevolverScheduler/revolver_wait: 29912982
////RevolverScheduler/total_BLOCK: 2720398
////RevolverScheduler/total_EMBRYO: 223702007
////RevolverScheduler/total_RUNNABLE: 63929454
////RevolverScheduler/total_SLEEP: 87063
////RevolverScheduler/total_ZOMBIE: 54854
////Scheduler/num_fcfs: 519680
////Scheduler/row_buffer_hit: 519680
////Scheduler/row_buffer_miss: 4608
////row_buffer/0_num_reads: 32768
////row_buffer/0_read_bytes: 262144
////row_buffer/10_num_reads: 32768
////row_buffer/10_read_bytes: 262144
////row_buffer/11_num_reads: 32768
////row_buffer/11_read_bytes: 262144
////row_buffer/12_num_reads: 32768
////row_buffer/12_read_bytes: 262144
////row_buffer/13_num_reads: 32768
////row_buffer/13_read_bytes: 262144
////row_buffer/14_num_reads: 32768
////row_buffer/14_read_bytes: 262144
////row_buffer/15_num_reads: 32768
////row_buffer/15_read_bytes: 262144
////row_buffer/1_num_reads: 32768
////row_buffer/1_read_bytes: 262144
////row_buffer/2_num_reads: 32768
////row_buffer/2_read_bytes: 262144
////row_buffer/3_num_reads: 32768
////row_buffer/3_read_bytes: 262144
////row_buffer/4_num_reads: 32768
////row_buffer/4_read_bytes: 262144
////row_buffer/5_num_reads: 32768
////row_buffer/5_read_bytes: 262144
////row_buffer/6_num_reads: 32768
////row_buffer/6_read_bytes: 262144
////row_buffer/7_num_reads: 32768
////row_buffer/7_read_bytes: 262144
////row_buffer/8_num_reads: 32768
////row_buffer/8_read_bytes: 262144
////row_buffer/9_num_reads: 32768
////row_buffer/9_read_bytes: 262144
////row_buffer/num_activations: 4608
////row_buffer/num_precharges: 4607
////row_buffer/num_reads: 524288
////row_buffer/read_bytes: 4194304
///Logic/0_num_instructions: 170538
///Logic/10_num_instructions: 170232
///Logic/11_num_instructions: 170249
///Logic/12_num_instructions: 170266
///Logic/13_num_instructions: 170283
///Logic/14_num_instructions: 170300
///Logic/15_num_instructions: 170317
///Logic/1_num_instructions: 170078
///Logic/2_num_instructions: 170096
///Logic/3_num_instructions: 170113
///Logic/4_num_instructions: 170130
///Logic/5_num_instructions: 170146
///Logic/6_num_instructions: 170163
///Logic/7_num_instructions: 170180
///Logic/8_num_instructions: 170198
///Logic/9_num_instructions: 170215
///Logic/active_tasklets_0: 15427228
///Logic/active_tasklets_1: 1100
///Logic/active_tasklets_10: 1308
///Logic/active_tasklets_11: 1448
///Logic/active_tasklets_12: 1546
///Logic/active_tasklets_13: 1551
///Logic/active_tasklets_14: 10199
///Logic/active_tasklets_15: 1724759
///Logic/active_tasklets_16: 976879
///Logic/active_tasklets_2: 596
///Logic/active_tasklets_3: 1260
///Logic/active_tasklets_4: 1779
///Logic/active_tasklets_5: 1333
///Logic/active_tasklets_6: 1233
///Logic/active_tasklets_7: 1148
///Logic/active_tasklets_8: 1271
///Logic/active_tasklets_9: 1223
///Logic/backpressuer: 1443596
///Logic/logic_cycle: 18155861
///Logic/mram_access_size: -1
///Logic/mram_access_thread: -1
///Logic/mram_address: -1
///Logic/num_instructions: 2723504
///MemoryController/mem_cycle: 124497332
//DPU#0/0_latency_breakdown_ARITHMETIC: 1919470
//DPU#0/0_latency_breakdown_SPM_ACCESS: 459942
//DPU#0/0_latency_breakdown_WAIT_DATA: 115935
//DPU#0/0_latency_breakdown_WAIT_SCHEDULE: 2438650
//DPU#0/0_latency_breakdown_WAIT_SYNC: 4522
//DPU#0/10_latency_breakdown_ARITHMETIC: 1918154
//DPU#0/10_latency_breakdown_SPM_ACCESS: 459284
//DPU#0/10_latency_breakdown_WAIT_DATA: 113869
//DPU#0/10_latency_breakdown_WAIT_SCHEDULE: 2439718
//DPU#0/10_latency_breakdown_WAIT_SYNC: 2226
//DPU#0/11_latency_breakdown_ARITHMETIC: 1918154
//DPU#0/11_latency_breakdown_SPM_ACCESS: 459284
//DPU#0/11_latency_breakdown_WAIT_DATA: 112390
//DPU#0/11_latency_breakdown_WAIT_SCHEDULE: 2441410
//DPU#0/11_latency_breakdown_WAIT_SYNC: 2464
//DPU#0/12_latency_breakdown_ARITHMETIC: 1918154
//DPU#0/12_latency_breakdown_SPM_ACCESS: 459284
//DPU#0/12_latency_breakdown_WAIT_DATA: 112711
//DPU#0/12_latency_breakdown_WAIT_SCHEDULE: 2441239
//DPU#0/12_latency_breakdown_WAIT_SYNC: 2702
//DPU#0/13_latency_breakdown_ARITHMETIC: 1918154
//DPU#0/13_latency_breakdown_SPM_ACCESS: 459284
//DPU#0/13_latency_breakdown_WAIT_DATA: 116309
//DPU#0/13_latency_breakdown_WAIT_SCHEDULE: 2437683
//DPU#0/13_latency_breakdown_WAIT_SYNC: 2940
//DPU#0/14_latency_breakdown_ARITHMETIC: 1918154
//DPU#0/14_latency_breakdown_SPM_ACCESS: 459284
//DPU#0/14_latency_breakdown_WAIT_DATA: 115076
//DPU#0/14_latency_breakdown_WAIT_SCHEDULE: 2438889
//DPU#0/14_latency_breakdown_WAIT_SYNC: 3178
//DPU#0/15_latency_breakdown_ARITHMETIC: 1918154
//DPU#0/15_latency_breakdown_SPM_ACCESS: 459284
//DPU#0/15_latency_breakdown_WAIT_DATA: 115116
//DPU#0/15_latency_breakdown_WAIT_SCHEDULE: 2438752
//DPU#0/15_latency_breakdown_WAIT_SYNC: 3416
//DPU#0/1_latency_breakdown_ARITHMETIC: 1918182
//DPU#0/1_latency_breakdown_SPM_ACCESS: 459228
//DPU#0/1_latency_breakdown_WAIT_DATA: 110836
//DPU#0/1_latency_breakdown_WAIT_SCHEDULE: 2435332
//DPU#0/1_latency_breakdown_WAIT_SYNC: 98
//DPU#0/2_latency_breakdown_ARITHMETIC: 1918154
//DPU#0/2_latency_breakdown_SPM_ACCESS: 459284
//DPU#0/2_latency_breakdown_WAIT_DATA: 110156
//DPU#0/2_latency_breakdown_WAIT_SCHEDULE: 2436623
//DPU#0/2_latency_breakdown_WAIT_SYNC: 322
//DPU#0/3_latency_breakdown_ARITHMETIC: 1918154
//DPU#0/3_latency_breakdown_SPM_ACCESS: 459284
//DPU#0/3_latency_breakdown_WAIT_DATA: 109560
//DPU#0/3_latency_breakdown_WAIT_SCHEDULE: 2438381
//DPU#0/3_latency_breakdown_WAIT_SYNC: 560
//DPU#0/4_latency_breakdown_ARITHMETIC: 1918154
//DPU#0/4_latency_breakdown_SPM_ACCESS: 459284
//DPU#0/4_latency_breakdown_WAIT_DATA: 110305
//DPU#0/4_latency_breakdown_WAIT_SCHEDULE: 2438937
//DPU#0/4_latency_breakdown_WAIT_SYNC: 798
//DPU#0/5_latency_breakdown_ARITHMETIC: 1918154
//DPU#0/5_latency_breakdown_SPM_ACCESS: 459284
//DPU#0/5_latency_breakdown_WAIT_DATA: 111273
//DPU#0/5_latency_breakdown_WAIT_SCHEDULE: 2439119
//DPU#0/5_latency_breakdown_WAIT_SYNC: 1022
//DPU#0/6_latency_breakdown_ARITHMETIC: 1918154
//DPU#0/6_latency_breakdown_SPM_ACCESS: 459284
//DPU#0/6_latency_breakdown_WAIT_DATA: 110461
//DPU#0/6_latency_breakdown_WAIT_SCHEDULE: 2440949
//DPU#0/6_latency_breakdown_WAIT_SYNC: 1260
//DPU#0/7_latency_breakdown_ARITHMETIC: 1918154
//DPU#0/7_latency_breakdown_SPM_ACCESS: 459284
//DPU#0/7_latency_breakdown_WAIT_DATA: 112667
//DPU#0/7_latency_breakdown_WAIT_SCHEDULE: 2439576
//DPU#0/7_latency_breakdown_WAIT_SYNC: 1498
//DPU#0/8_latency_breakdown_ARITHMETIC: 1918154
//DPU#0/8_latency_breakdown_SPM_ACCESS: 459284
//DPU#0/8_latency_breakdown_WAIT_DATA: 111728
//DPU#0/8_latency_breakdown_WAIT_SCHEDULE: 2441113
//DPU#0/8_latency_breakdown_WAIT_SYNC: 1750
//DPU#0/9_latency_breakdown_ARITHMETIC: 1918154
//DPU#0/9_latency_breakdown_SPM_ACCESS: 459284
//DPU#0/9_latency_breakdown_WAIT_DATA: 113811
//DPU#0/9_latency_breakdown_WAIT_SCHEDULE: 2439469
//DPU#0/9_latency_breakdown_WAIT_SYNC: 1988
//DPU#0/cycle: 18155861
/Rank/communication_cycle: 13983626
/Rank/num_reads: 1
/Rank/num_writes: 2
/Rank/rank_cycle: 18155861
/Rank/read_bytes: 256
/Rank/write_bytes: 4194320
Exiting @ tick 19777126416000 because user interrupt received
